data/three-wire/network_22/Feeder_5/LineCode.txt
! Subset of available target linecodes, which are closest to the original ones in terms of positive sequence impedance
! ------------------------------------------------------------------------------------------------------------------------------------------------------------------------------------------------
! original name: BS 5467 1997 table 10 25 (50 Hz)
New LineCode.LC2 nphases=3 Units=km Normamps=107
~ Rmatrix=(1.0594667298627067 0.3242646289666607 0.3314749224926541 | 0.3242646289666607 1.0446376222687768 0.3242638498991469 | 0.3314749224926541 0.3242638498991469 1.0594661151236098)
~ Xmatrix=(0.34010734126323733 0.27976519456661353 0.24337450968248492 | 0.27976519456661353 0.3638194610546059 0.2797643661740138 | 0.24337450968248492 0.2797643661740138 0.3401206781030399)
~ Cmatrix=(0.0 0.0 0.0 | 0.0 0.0 0.0 | 0.0 0.0 0.0)

! original name: BS 5467 1997 table 10 35 (50 Hz)
New LineCode.LC3 nphases=3 Units=km Normamps=129
~ Rmatrix=(0.8116586312898465 0.2804654788914415 0.2865887166768853 | 0.2804654788914415 0.798761925106297 0.2805241839239158 | 0.2865887166768853 0.2805241839239158 0.8117788036717444)
~ Xmatrix=(0.2624332146798262 0.20719203457973917 0.16864022049264266 | 0.20719203457973917 0.2908016997286811 0.2072410312795302 | 0.16864022049264266 0.2072410312795302 0.26252820689216805)
~ Cmatrix=(0.0 0.0 0.0 | 0.0 0.0 0.0 | 0.0 0.0 0.0)

! original name: BS 5467 1997 table 10 70 (50 Hz)
New LineCode.LC4 nphases=3 Units=km Normamps=167
~ Rmatrix=(0.44953913376315724 0.17616199136098196 0.1785122816803393 | 0.1761619913609819 0.4429873630446448 0.1761926354329793 | 0.1785122816803393 0.1761926354329793 0.44960242548376383)
~ Xmatrix=(0.1644338736389795 0.11425582422645958 0.07301236488580165 | 0.11425582422645952 0.19845465242237786 0.11427426646422706 | 0.07301236488580165 0.11427426646422706 0.16448084404397678)
~ Cmatrix=(0.0 0.0 0.0 | 0.0 0.0 0.0 | 0.0 0.0 0.0)

! original name: BS 6480 1988 table 17 Cu 16 (50 Hz)
New LineCode.LC6 nphases=3 Units=km Normamps=58
~ Rmatrix=(1.7933236711472256 0.6363723759193842 0.6399235094508074 | 0.6363723759193842 1.784886510251047 0.6363722249590626 | 0.6399235094508074 0.6363722249590626 1.7933243477547518)
~ Xmatrix=(0.31879625459756056 0.251481213905138 0.20435482237859037 | 0.251481213905138 0.3529353602963323 0.25148177638394376 | 0.20435482237859037 0.25148177638394376 0.3188003901594534)
~ Cmatrix=(0.0 0.0 0.0 | 0.0 0.0 0.0 | 0.0 0.0 0.0)
! ------------------------------------------------------------------------------------------------------------------------------------------------------------------------------------------------